10
0.532
C           -1.08665  -0.24470  -0.29868
C            0.06856   0.18095   0.58537
C            1.35877   0.14611  -0.18806
O            2.13310   1.09592  -0.24992
H           -0.94123  -1.26335  -0.67362
H           -2.02691  -0.21621   0.26024
H           -1.18102   0.41751  -1.16580
H           -0.09496   1.19495   0.96372
H            0.16573  -0.49662   1.43916
H            1.60460  -0.81456  -0.67241
