10

C           -1.08665  -0.24470  -0.29868
C            0.06856   0.18095   0.58537
C            1.35877   0.14611  -0.18806
O            2.13310   1.09592  -0.24992
H           -0.94123  -1.26335  -0.67362
H           -2.02691  -0.21621   0.26024
H           -1.18102   0.41751  -1.16580
H           -0.09496   1.19495   0.96372
H            0.16573  -0.49662   1.43916
H            1.60460  -0.81456  -0.67241
10

C           -1.07356  -0.24778  -0.30218
C            0.08201   0.18289   0.60042
C            1.38209   0.12642  -0.16187
O            2.08993   1.07869  -0.25854
H           -0.95048  -1.27338  -0.67106
H           -2.02779  -0.20749   0.23577
H           -1.16782   0.40514  -1.17891
H           -0.08880   1.20341   0.98704
H            0.15498  -0.47900   1.48059
H            1.59942  -0.78889  -0.73125
10

C           -1.08953  -0.24999  -0.30345
C            0.08404   0.19018   0.57747
C            1.36460   0.15044  -0.22463
O            2.13343   1.06015  -0.20187
H           -0.97200  -1.27406  -0.67975
H           -2.03508  -0.22100   0.25255
H           -1.21575   0.40630  -1.17486
H           -0.09345   1.20862   0.98280
H            0.17675  -0.46911   1.46480
H            1.64698  -0.80153  -0.69306
10

C           -1.08024  -0.25121  -0.30210
C            0.07789   0.18306   0.58968
C            1.37141   0.13729  -0.19065
O            2.14183   1.08655  -0.23630
H           -0.95298  -1.27625  -0.66938
H           -2.03136  -0.21547   0.24321
H           -1.18329   0.40551  -1.17523
H           -0.09791   1.20322   0.98579
H            0.15473  -0.47537   1.47682
H            1.59991  -0.79733  -0.72184
10

C           -1.08039  -0.25329  -0.30203
C            0.08019   0.18681   0.58486
C            1.37012   0.13951  -0.19505
O            2.13810   1.06766  -0.20858
H           -0.95459  -1.28014  -0.66494
H           -2.03087  -0.21620   0.24492
H           -1.18829   0.39927  -1.17797
H           -0.09526   1.20856   0.98009
H            0.16175  -0.46604   1.47673
H            1.59924  -0.78613  -0.73804
10

C           -1.08004  -0.25651  -0.30119
C            0.08026   0.18878   0.58301
C            1.37283   0.13939  -0.19169
O            2.15027   1.05975  -0.18823
H           -0.95439  -1.28545  -0.65812
H           -2.03082  -0.21660   0.24527
H           -1.18854   0.39095  -1.18086
H           -0.09624   1.21213   0.97438
H            0.16170  -0.45871   1.47902
H            1.58495  -0.77374  -0.76157
10

C           -1.08055  -0.26246  -0.29951
C            0.07978   0.19328   0.57757
C            1.37503   0.14118  -0.19113
O            2.17566   1.04092  -0.14592
H           -0.95411  -1.29488  -0.64572
H           -2.03104  -0.21869   0.24771
H           -1.19211   0.37588  -1.18544
H           -0.09883   1.21943   0.96290
H            0.16364  -0.44450   1.48118
H            1.56252  -0.75016  -0.80163
10

C           -1.08221  -0.27412  -0.29572
C            0.07824   0.20288   0.56678
C            1.37749   0.14611  -0.19310
O            2.22479   0.99394  -0.06181
H           -0.95356  -1.31294  -0.62119
H           -2.03180  -0.22348   0.25335
H           -1.20044   0.34569  -1.19384
H           -0.10462   1.23442   0.93909
H            0.16836  -0.41597   1.48463
H            1.52374  -0.69652  -0.87820
10

C           -1.08474  -0.29659  -0.28718
C            0.07468   0.22234   0.54783
C            1.37985   0.15730  -0.19892
O            2.30807   0.87067   0.09230
H           -0.94987  -1.34667  -0.57188
H           -2.03285  -0.23320   0.26416
H           -1.21444   0.28535  -1.20862
H           -0.11683   1.26391   0.89038
H            0.17642  -0.35915   1.49127
H            1.45970  -0.56397  -1.01934
10

C           -1.08458  -0.31690  -0.27830
C            0.07136   0.23982   0.53540
C            1.37951   0.16811  -0.20466
O            2.36557   0.72635   0.20995
H           -0.94145  -1.37573  -0.52518
H           -2.03255  -0.24243   0.27196
H           -1.22078   0.22913  -1.22036
H           -0.12838   1.29027   0.84389
H            0.17883  -0.30612   1.50055
H            1.41246  -0.41250  -1.13325
10

C           -1.08223  -0.32476  -0.27466
C            0.07016   0.24665   0.53566
C            1.37727   0.17172  -0.20661
O            2.38305   0.66250   0.24407
H           -0.93331  -1.38623  -0.50727
H           -2.03125  -0.24736   0.27268
H           -1.21773   0.20778  -1.22436
H           -0.13245   1.30099   0.82501
H            0.17457  -0.28516   1.50823
H            1.39191  -0.34613  -1.17275
10

C           -1.08185  -0.33172  -0.27161
C            0.06939   0.25283   0.53387
C            1.37731   0.17508  -0.20751
O            2.39691   0.60548   0.27247
H           -0.92750  -1.39496  -0.49299
H           -2.03047  -0.25307   0.27545
H           -1.21936   0.19015  -1.22669
H           -0.13544   1.31024   0.80711
H            0.17139  -0.26653   1.51184
H            1.37961  -0.28750  -1.20194
10

C           -1.08119  -0.33273  -0.27131
C            0.06915   0.25430   0.53433
C            1.37680   0.17479  -0.20738
O            2.39873   0.59569   0.27596
H           -0.92425  -1.39565  -0.49218
H           -2.02961  -0.25565   0.27602
H           -1.21933   0.18887  -1.22629
H           -0.13626   1.31254   0.80370
H            0.17025  -0.26281   1.51290
H            1.37568  -0.27935  -1.20575
10

C           -1.08129  -0.33330  -0.27115
C            0.06909   0.25493   0.53383
C            1.37712   0.17467  -0.20730
O            2.39985   0.59072   0.27852
H           -0.92324  -1.39594  -0.49227
H           -2.02931  -0.25743   0.27698
H           -1.22076   0.18847  -1.22577
H           -0.13661   1.31365   0.80147
H            0.16999  -0.26048   1.51316
H            1.37516  -0.27530  -1.20748
10

C           -1.08135  -0.33332  -0.27121
C            0.06904   0.25525   0.53352
C            1.37738   0.17409  -0.20707
O            2.40008   0.58977   0.27913
H           -0.92213  -1.39536  -0.49409
H           -2.02893  -0.25959   0.27801
H           -1.22250   0.18986  -1.22477
H           -0.13653   1.31438   0.80017
H            0.16960  -0.25911   1.51340
H            1.37534  -0.27597  -1.20709
10

C           -1.08137  -0.33318  -0.27127
C            0.06899   0.25540   0.53337
C            1.37746   0.17364  -0.20690
O            2.39997   0.59016   0.27900
H           -0.92139  -1.39477  -0.49565
H           -2.02867  -0.26105   0.27869
H           -1.22367   0.19112  -1.22406
H           -0.13631   1.31474   0.79962
H            0.16925  -0.25852   1.51356
H            1.37572  -0.27755  -1.20636
